Version 4
SHEET 1 880 680
WIRE -1040 -400 -1088 -400
WIRE -864 -400 -960 -400
WIRE -736 -400 -816 -400
WIRE -624 -400 -672 -400
WIRE -528 -400 -624 -400
WIRE -864 -384 -864 -400
WIRE -816 -384 -816 -400
WIRE -624 -384 -624 -400
WIRE -528 -384 -528 -400
WIRE -864 -288 -864 -304
WIRE -816 -288 -816 -304
WIRE -624 -288 -624 -320
WIRE -624 -288 -816 -288
WIRE -528 -288 -528 -304
WIRE -528 -288 -624 -288
WIRE -1088 -272 -1088 -400
WIRE -912 -208 -960 -208
WIRE -960 -192 -960 -208
WIRE -1088 -112 -1088 -192
WIRE -864 -112 -864 -192
WIRE -816 -112 -816 -288
FLAG -1088 -112 0
FLAG -960 -112 0
FLAG -864 -112 0
FLAG -816 -112 0
SYMBOL voltage -1088 -288 R0
WINDOW 123 0 0 Left 0
WINDOW 39 0 0 Left 0
SYMATTR InstName V1
SYMATTR Value 30
SYMBOL res -944 -416 R90
WINDOW 0 0 56 VBottom 2
WINDOW 3 32 56 VTop 2
SYMATTR InstName R1
SYMATTR Value 0.01
SYMBOL ind2 -848 -288 R180
WINDOW 0 36 80 Left 2
WINDOW 3 36 40 Left 2
SYMATTR InstName L1
SYMATTR Value 88.6µ
SYMBOL ind2 -832 -400 R0
SYMATTR InstName L2
SYMATTR Value 15.9µ
SYMBOL schottky -736 -384 R270
WINDOW 0 32 32 VTop 2
WINDOW 3 0 32 VBottom 2
SYMATTR InstName D1
SYMATTR Value MBRS360
SYMATTR Description Diode
SYMATTR Type diode
SYMBOL cap -640 -384 R0
SYMATTR InstName C1
SYMATTR Value 220µ
SYMBOL res -544 -400 R0
SYMATTR InstName R2
SYMATTR Value 24
SYMBOL voltage -960 -208 R0
SYMATTR InstName V2
SYMBOL Contrib\\Toshiba\\nmos\\SSM3K09FU -912 -288 R0
WINDOW 0 89 32 Right 2
WINDOW 38 56 72 Invisible 2
SYMATTR InstName U1
TEXT -888 -440 Left 2 !K L1 L2 1
